LVTest_VLN.Txt

SYMMETRICAL COMPONENT VOLTAGES BY BUS (for 3-phase buses)

Bus        Mag:   V1 (kV)    p.u.     V2 (kV)   %V2/V1    V0 (kV)    %V0/V1

sourcebus     6.351          1  3.104E-009  4.887E-008 4.131E-010 6.505E-009
1            0.2396          1  1.242E-010  5.183E-008 1.211E-013 5.055E-011
2            0.2396          1  1.242E-010  5.184E-008 1.212E-013 5.059E-011
3            0.2396          1  1.242E-010  5.184E-008 1.531E-013 6.392E-011
4            0.2396          1  1.242E-010  5.184E-008 1.868E-013 7.798E-011
5            0.2396          1  1.242E-010  5.184E-008 2.215E-013 9.245E-011
6            0.2396          1  1.242E-010  5.185E-008 2.567E-013 1.071E-010
7            0.2396          1  1.242E-010  5.185E-008 2.819E-013 1.176E-010
8            0.2396          1  1.242E-010  5.185E-008 3.074E-013 1.283E-010
9            0.2396          1  1.242E-010  5.186E-008 3.234E-013 1.35E-010
10           0.2396          1  1.243E-010  5.186E-008 3.485E-013 1.454E-010
11           0.2396          1  1.243E-010  5.186E-008 3.652E-013 1.524E-010
12           0.2396          1  1.243E-010  5.187E-008 3.824E-013 1.596E-010
13           0.2396          1  1.243E-010  5.187E-008 3.917E-013 1.635E-010
14           0.2396          1  1.243E-010  5.187E-008 4.016E-013 1.676E-010
15           0.2396          1  1.243E-010  5.188E-008 4.122E-013 1.72E-010
16           0.2396          1  1.243E-010  5.188E-008 4.233E-013 1.767E-010
17           0.2396          1  1.243E-010  5.188E-008 4.35E-013 1.815E-010
18           0.2396          1  1.243E-010  5.189E-008 4.441E-013 1.854E-010
19           0.2396          1  1.243E-010  5.189E-008 4.508E-013 1.881E-010
20           0.2396          1  1.243E-010  5.189E-008 4.502E-013 1.879E-010
21           0.2396          1  1.243E-010  5.188E-008 4.471E-013 1.866E-010
22           0.2396          1  1.243E-010  5.188E-008 4.442E-013 1.854E-010
23           0.2396          1  1.243E-010  5.188E-008 4.416E-013 1.843E-010
24           0.2396          1  1.243E-010  5.188E-008 4.391E-013 1.833E-010
25           0.2396          1  1.243E-010  5.188E-008 4.391E-013 1.833E-010
26           0.2396          1  1.243E-010  5.188E-008 4.391E-013 1.833E-010
27           0.2396          1  1.243E-010  5.188E-008 4.39E-013 1.832E-010
28           0.2396          1  1.243E-010  5.188E-008 4.391E-013 1.833E-010
29           0.2396          1  1.243E-010  5.188E-008 4.391E-013 1.833E-010
30           0.2396          1  1.243E-010  5.188E-008 4.391E-013 1.833E-010
31           0.2396          1  1.243E-010  5.188E-008 4.391E-013 1.833E-010
32           0.2396          1  1.243E-010  5.188E-008 4.391E-013 1.833E-010
